%nprocshared=24                                                                      
%mem=23500MB                                                                         
%chk=DAC_061222_MC_TTC_THF_Thiago.chk                                                
%rwf=/scr/guest/DAC,500GB                                                            
#p opt freq=noraman M062X/6-31g(d,p) scrf=(iefpcm,solvent=thf) scf=maxcycle=2000 maxd
                                                                                     
Estruturas que vieram da MC2                                                         
                                                                                     
0 1                         
 C       1.497582       2.904662      -0.579039                                 
 C       1.763682       1.923092       0.482951                                 
 C       2.662482       2.244152       1.515461                                 
 C       3.302722       3.459032       1.551781                                 
 C       3.074482       4.434722       0.542031                                 
 C       2.214562       4.166312      -0.470129                                 
 H       2.860282       1.524372       2.301491                                 
 H       3.597582       5.380632       0.604291                                 
 H       2.024672       4.895022      -1.250539                                 
 N       4.211182       3.747272       2.618981                                 
 O       4.772472       4.844332       2.630961                                 
 O       4.402812       2.894382       3.487821                                 
 O       0.711922       2.698372      -1.523669                                 
 C       1.151982       0.647142       0.527811                                 
 H       1.441912       0.041072       1.379931                                 
 C       0.252822       0.128022      -0.378909                                 
 H      -0.007988       0.768692      -1.208439                                 
 C      -0.328548      -1.144588      -0.283909                                 
 C      -0.125518      -2.223248       0.782221                                 
 N      -1.196078      -1.589058      -1.203949                                 
 C      -2.538268      -3.696718      -1.604449                                 
 C      -2.791918      -4.965928      -1.087859                                 
 C      -2.177568      -5.407228       0.081441                                 
 C      -1.289958      -4.581738       0.771481                                 
 C      -1.028928      -3.320968       0.266171                                 
 C      -1.646928      -2.900878      -0.903869                                 
 H      -3.047208      -3.342938      -2.491009                                 
 H      -3.486098      -5.616978      -1.607939                                 
 H      -2.394278      -6.399598       0.461211                                 
 H      -0.815278      -4.926328       1.684551                                 
 C      -0.601248      -1.749768       2.168891                                 
 H      -1.631398      -1.389548       2.128061                                 
 H      -0.561228      -2.589228       2.866541                                 
 H       0.027372      -0.951538       2.564891                                 
 C       1.334792      -2.713238       0.821971                                 
 H       1.670692      -3.025468      -0.169139                                 
 H       2.014772      -1.944498       1.189961                                 
 H       1.404222      -3.573188       1.491781                                 
 C      -1.583198      -0.846178      -2.404449                                 
 H      -0.680148      -0.411888      -2.833779                                 
 H      -1.975508      -1.562258      -3.124319                                 
 C      -2.615698       0.245372      -2.142149                                 
 H      -2.378888       0.826102      -1.249219                                 
 H      -2.600068       0.950982      -2.979929                                 
 C      -4.028168      -0.273978      -2.048189                                 
 O      -4.418588      -1.323928      -2.507779                                 
 O      -4.833098       0.592122      -1.425409                                 
 H      -5.732758       0.224442      -1.440239                                 
 O       3.260732      -1.721808      -1.732549                                 
 H       2.746662      -1.792828      -2.567119                                 
 C       3.943932      -0.469968      -1.732559                                 
 H       4.709512      -0.434988      -2.518379                                 
 H       3.257402       0.377452      -1.868959                                 
 H       4.437152      -0.370548      -0.762529                                 
 O       0.115542       1.609072       4.003801                                 
 H      -0.785048       1.217552       4.042171                                 
 C      -0.013438       3.029352       3.998811                                 
 H      -0.494278       3.381542       3.077071                                 
 H      -0.587978       3.396892       4.860711                                 
 H       0.995682       3.446022       4.045171                                 
 O      -3.777968       2.837102       2.221501                                 
 H      -4.644958       3.297032       2.272601                                 
 C      -3.374398       2.792902       0.854371                                 
 H      -4.045808       2.157882       0.262091                                 
 H      -3.339728       3.792832       0.399391                                 
 H      -2.371918       2.358902       0.826861                                 
 O      -2.587688       1.140202       3.811121                                 
 H      -2.829298       1.703282       3.042761                                 
 C      -3.627278       0.184462       4.010361                                 
 H      -4.560278       0.671262       4.322391                                 
 H      -3.822988      -0.410198       3.106961                                 
 H      -3.301458      -0.486178       4.809241                                 
 O       2.100322      -1.827478      -4.343399                                 
 H       1.710522      -1.402188      -5.138999                                 
 C       2.707072      -3.054538      -4.743449                                 
 H       1.954962      -3.776288      -5.087309                                 
 H       3.449522      -2.909728      -5.540849                                 
 H       3.209642      -3.468218      -3.865719                                 
 O       1.615572      -3.710218       4.843021                                 
 H       1.154082      -3.126958       5.485421                                 
 C       2.914782      -3.173038       4.603561                                 
 H       2.856152      -2.205878       4.087751                                 
 H       3.488492      -3.044898       5.532271                                 
 H       3.443012      -3.879268       3.958351                                 
 O       1.185402      -0.470668      -6.557449                                 
 H       1.545232      -0.203888      -7.432199                                 
 C       0.278862       0.539282      -6.119209                                 
 H       0.802862       1.481552      -5.913269                                 
 H      -0.516768       0.729612      -6.853259                                 
 H      -0.176188       0.184922      -5.191079                                 
 O      -3.826538       3.036792      -3.611779                                 
 H      -4.702848       3.435932      -3.415319                                 
 C      -3.349978       3.584632      -4.839219                                 
 H      -3.977808       3.272902      -5.683949                                 
 H      -3.308398       4.682702      -4.815119                                 
 H      -2.340118       3.197692      -4.995729                                 
 O       0.432702      -6.464928      -2.918359                                 
 H       0.448562      -7.152898      -2.216749                                 
 C       1.310432      -5.409818      -2.530839                                 
 H       0.936082      -4.888158      -1.640549                                 
 H       2.328672      -5.770488      -2.328009                                 
 H       1.347612      -4.698968      -3.359919                                 
 O       6.681772      -2.268558       1.887691                                 
 H       6.894422      -2.626388       0.997431                                 
 C       5.263402      -2.247538       2.034791                                 
 H       4.802802      -1.529298       1.344281                                 
 H       4.814252      -3.236798       1.868421                                 
 H       5.048982      -1.931498       3.058611                                 
 O       1.777842       1.725342       6.328211                                 
 H       1.464612       1.609682       5.403881                                 
 C       3.133802       1.289282       6.399421                                 
 H       3.213262       0.208222       6.226701                                 
 H       3.776162       1.811602       5.676521                                 
 H       3.491042       1.506892       7.408961                                 
 O      -0.028758      -2.155028       6.305941                                 
 H      -0.276778      -1.315618       6.752821                                 
 C      -1.015888      -3.136338       6.616551                                 
 H      -1.001148      -3.390868       7.684191                                 
 H      -2.028608      -2.806628       6.345021                                 
 H      -0.772148      -4.033488       6.042241                                 
 O      -2.209838       7.281002      -1.088119                                 
 H      -1.278898       7.512122      -1.302069                                 
 C      -2.341868       5.861882      -1.138639                                 
 H      -2.204398       5.486022      -2.160729                                 
 H      -1.626798       5.354722      -0.475649                                 
 H      -3.356408       5.619552      -0.813009                                 
 O      -7.287898      -2.049208       2.274101                                 
 H      -8.154258      -1.609648       2.125681                                 
 C      -6.254048      -1.110298       1.985291                                 
 H      -6.239468      -0.850658       0.918881                                 
 H      -6.355728      -0.187208       2.573171                                 
 H      -5.304068      -1.586618       2.239761                                 
 O       2.582132      -6.027088       2.176571                                 
 H       3.449502      -6.156268       2.620231                                 
 C       1.877602      -7.266828       2.201001                                 
 H       2.380582      -8.022068       1.583361                                 
 H       1.765972      -7.660668       3.221051                                 
 H       0.884362      -7.082748       1.784301                                 
 O       2.172142       6.296592      -4.453209                                 
 H       3.033912       6.254402      -4.923699                                 
 C       1.815952       4.975282      -4.051749                                 
 H       1.611472       4.337232      -4.921189                                 
 H       2.597882       4.502112      -3.441259                                 
 H       0.903312       5.053152      -3.455819                                 
 O      -3.365778       2.812542       5.909791                                 
 H      -3.118818       2.168422       5.209841                                 
 C      -4.685108       3.282432       5.640651                                 
 H      -4.715888       3.872532       4.715621                                 
 H      -5.410178       2.460262       5.560551                                 
 H      -4.975108       3.927312       6.473771                                 


