%nprocshared=24                                                                      
%mem=23500MB                                                                         
%chk=DAC_061222_MC_TTC_THF_Thiago.chk                                                
%rwf=/scr/guest/DAC,500GB                                                            
#p opt freq=noraman M062X/6-31g(d,p) scrf=(iefpcm,solvent=thf) scf=maxcycle=2000 maxd
                                                                                     
Estruturas que vieram da MC2                                                         
                                                                                     
0 1                                                                                 
 C       1.497582       2.904662      -0.579039                                 
 C       1.763682       1.923092       0.482951                                 
 C       2.662482       2.244152       1.515461                                 
 C       3.302722       3.459032       1.551781                                 
 C       3.074482       4.434722       0.542031                                 
 C       2.214562       4.166312      -0.470129                                 
 H       2.860282       1.524372       2.301491                                 
 H       3.597582       5.380632       0.604291                                 
 H       2.024672       4.895022      -1.250539                                 
 N       4.211182       3.747272       2.618981                                 
 O       4.772472       4.844332       2.630961                                 
 O       4.402812       2.894382       3.487821                                 
 O       0.711922       2.698372      -1.523669                                 
 C       1.151982       0.647142       0.527811                                 
 H       1.441912       0.041072       1.379931                                 
 C       0.252822       0.128022      -0.378909                                 
 H      -0.007988       0.768692      -1.208439                                 
 C      -0.328548      -1.144588      -0.283909                                 
 C      -0.125518      -2.223248       0.782221                                 
 N      -1.196078      -1.589058      -1.203949                                 
 C      -2.538268      -3.696718      -1.604449                                 
 C      -2.791918      -4.965928      -1.087859                                 
 C      -2.177568      -5.407228       0.081441                                 
 C      -1.289958      -4.581738       0.771481                                 
 C      -1.028928      -3.320968       0.266171                                 
 C      -1.646928      -2.900878      -0.903869                                 
 H      -3.047208      -3.342938      -2.491009                                 
 H      -3.486098      -5.616978      -1.607939                                 
 H      -2.394278      -6.399598       0.461211                                 
 H      -0.815278      -4.926328       1.684551                                 
 C      -0.601248      -1.749768       2.168891                                 
 H      -1.631398      -1.389548       2.128061                                 
 H      -0.561228      -2.589228       2.866541                                 
 H       0.027372      -0.951538       2.564891                                 
 C       1.334792      -2.713238       0.821971                                 
 H       1.670692      -3.025468      -0.169139                                 
 H       2.014772      -1.944498       1.189961                                 
 H       1.404222      -3.573188       1.491781                                 
 C      -1.583198      -0.846178      -2.404449                                 
 H      -0.680148      -0.411888      -2.833779                                 
 H      -1.975508      -1.562258      -3.124319                                 
 C      -2.615698       0.245372      -2.142149                                 
 H      -2.378888       0.826102      -1.249219                                 
 H      -2.600068       0.950982      -2.979929                                 
 C      -4.028168      -0.273978      -2.048189                                 
 O      -4.418588      -1.323928      -2.507779                                 
 O      -4.833098       0.592122      -1.425409                                 
 H      -5.732758       0.224442      -1.440239                                 
 O       0.919262      -3.249028      -2.819979                                 
 H       0.115782      -3.283388      -3.384820                                 
 C       1.751862      -2.190688      -3.289599                                 
 H       2.142612      -2.407378      -4.292200                                 
 H       1.223252      -1.227398      -3.316090                                 
 H       2.594362      -2.110758      -2.598289                                 
 O      -3.777648      -1.967638       2.947650                                 
 H      -4.551688      -2.550768       2.784441                                 
 C      -4.232308      -0.616118       2.971560                                 
 H      -4.596708      -0.301848       1.984990                                 
 H      -5.030988      -0.459978       3.710340                                 
 H      -3.376918       0.008302       3.240911                                 
 O      -1.545378       2.326732       3.998710                                 
 H      -1.946568       3.179092       4.278630                                 
 C      -1.504158       1.458502       5.129341                                 
 H      -0.814828       1.836122       5.895531                                 
 H      -2.495868       1.319902       5.582510                                 
 H      -1.138418       0.489792       4.780190                                 
 O      -2.241078       5.387842      -1.285400                                 
 H      -1.490558       5.607802      -0.690280                                 
 C      -2.286438       3.971272      -1.444150                                 
 H      -1.404358       3.603392      -1.984020                                 
 H      -2.355558       3.447692      -0.480210                                 
 H      -3.176408       3.740222      -2.034630                                 
 O       2.793012      -2.007808       3.943790                                 
 H       2.513752      -2.205368       4.865100                                 
 C       4.028842      -1.297748       3.992960                                 
 H       3.900372      -0.307318       4.448400                                 
 H       4.800832      -1.846528       4.550591                                 
 H       4.366862      -1.164868       2.962350                                 
 O      -0.224128       6.057212       0.429910                                 
 H       0.089172       6.845422       0.926280                                 
 C      -0.049528       4.908602       1.257030                                 
 H       1.014302       4.704042       1.433740                                 
 H      -0.555608       5.014842       2.226920                                 
 H      -0.483078       4.058102       0.725290                                 
 O       0.885902       3.235282       4.826291                                 
 H       0.005012       2.825162       4.679000                                 
 C       1.841242       2.191832       5.006280                                 
 H       1.651062       1.634232       5.932440                                 
 H       1.849022       1.486432       4.163441                                 
 H       2.824602       2.662682       5.080060                                 
 O      -1.031068      -3.020988      -4.562079                                 
 H      -0.917598      -2.688028      -5.479740                                 
 C      -1.999188      -4.067998      -4.582069                                 
 H      -2.992778      -3.685588      -4.849279                                 
 H      -1.728308      -4.870328      -5.282770                                 
 H      -2.046998      -4.483738      -3.572649                                 
 O      -2.517828       2.155342      -5.411930                                 
 H      -3.349828       2.676152      -5.460490                                 
 C      -1.427158       3.064852      -5.281229                                 
 H      -1.305908       3.672892      -6.187039                                 
 H      -1.546748       3.734932      -4.418240                                 
 H      -0.522998       2.467632      -5.140260                                 
 O       1.033872      -5.122488       3.546000                                 
 H       1.949462      -5.476698       3.591541                                 
 C       0.501912      -5.084998       4.868680                                 
 H       0.374032      -6.096858       5.274480                                 
 H       1.135932      -4.505808       5.554690                                 
 H      -0.479468      -4.608048       4.809310                                 
 O       6.351852      -1.909028      -3.331890                                 
 H       7.093822      -1.277578      -3.203190                                 
 C       5.194682      -1.168348      -3.714260                                 
 H       4.850872      -0.519158      -2.898669                                 
 H       5.372742      -0.551798      -4.606589                                 
 H       4.406832      -1.891758      -3.937969                                 
 O       2.256942      -1.251088       6.478440                                 
 H       2.620712      -0.548488       7.061410                                 
 C       0.986612      -1.646158       6.992341                                 
 H       1.088272      -2.138608       7.968050                                 
 H       0.297772      -0.795848       7.094851                                 
 H       0.559752      -2.361478       6.285070                                 
 O      -5.308008       5.008582       3.089180                                 
 H      -6.141758       5.315752       2.669250                                 
 C      -4.436348       4.538702       2.062850                                 
 H      -4.837928       3.637292       1.582170                                 
 H      -4.254928       5.300442       1.291570                                 
 H      -3.485248       4.284902       2.537281                                 
 O      -1.091718      -7.594288      -1.656630                                 
 H      -0.635608      -7.790428      -0.808520                                 
 C      -0.401428      -6.524628      -2.299400                                 
 H      -0.493388      -5.591968      -1.727930                                 
 H       0.665032      -6.747088      -2.444989                                 
 H      -0.867378      -6.380178      -3.277189                                 
 O       7.730852       0.027892       0.144480                                 
 H       8.660532      -0.183308       0.383010                                 
 C       7.037152       0.400882       1.333400                                 
 H       6.946692      -0.447778       2.023650                                 
 H       7.529032       1.232572       1.857250                                 
 H       6.033672       0.716042       1.037110                                 
 O      -1.757758      -3.078458       7.335841                                 
 H      -2.174288      -2.700708       8.141830                                 
 C      -2.263628      -2.379058       6.200581                                 
 H      -3.334948      -2.572098       6.059731                                 
 H      -2.106408      -1.293998       6.277710                                 
 H      -1.725688      -2.751138       5.325211                                 
 O       5.236892       3.480372      -5.450270                                 
 H       6.114712       3.215092      -5.096879                                 
 C       4.231442       2.992482      -4.564340                                 
 H       4.197152       1.895362      -4.567619                                 
 H       4.383902       3.338982      -3.532470                                 
 H       3.271652       3.371012      -4.924359                                 


