%nprocshared=24                                                                      
%mem=23500MB                                                                         
%chk=DAC_061222_MC_TTC_THF_Thiago.chk                                                
%rwf=/scr/guest/DAC,500GB                                                            
#p opt freq=noraman M062X/6-31g(d,p) scrf=(iefpcm,solvent=thf) scf=maxcycle=2000 maxd
                                                                                     
Estruturas que vieram da MC2                                                         
                                                                                     
0 1                                                                                
 C       1.497582       2.904662      -0.579039                                 
 C       1.763682       1.923092       0.482951                                 
 C       2.662482       2.244152       1.515461                                 
 C       3.302722       3.459032       1.551781                                 
 C       3.074482       4.434722       0.542031                                 
 C       2.214562       4.166312      -0.470129                                 
 H       2.860282       1.524372       2.301491                                 
 H       3.597582       5.380632       0.604291                                 
 H       2.024672       4.895022      -1.250539                                 
 N       4.211182       3.747272       2.618981                                 
 O       4.772472       4.844332       2.630961                                 
 O       4.402812       2.894382       3.487821                                 
 O       0.711922       2.698372      -1.523669                                 
 C       1.151982       0.647142       0.527811                                 
 H       1.441912       0.041072       1.379931                                 
 C       0.252822       0.128022      -0.378909                                 
 H      -0.007988       0.768692      -1.208439                                 
 C      -0.328548      -1.144588      -0.283909                                 
 C      -0.125518      -2.223248       0.782221                                 
 N      -1.196078      -1.589058      -1.203949                                 
 C      -2.538268      -3.696718      -1.604449                                 
 C      -2.791918      -4.965928      -1.087859                                 
 C      -2.177568      -5.407228       0.081441                                 
 C      -1.289958      -4.581738       0.771481                                 
 C      -1.028928      -3.320968       0.266171                                 
 C      -1.646928      -2.900878      -0.903869                                 
 H      -3.047208      -3.342938      -2.491009                                 
 H      -3.486098      -5.616978      -1.607939                                 
 H      -2.394278      -6.399598       0.461211                                 
 H      -0.815278      -4.926328       1.684551                                 
 C      -0.601248      -1.749768       2.168891                                 
 H      -1.631398      -1.389548       2.128061                                 
 H      -0.561228      -2.589228       2.866541                                 
 H       0.027372      -0.951538       2.564891                                 
 C       1.334792      -2.713238       0.821971                                 
 H       1.670692      -3.025468      -0.169139                                 
 H       2.014772      -1.944498       1.189961                                 
 H       1.404222      -3.573188       1.491781                                 
 C      -1.583198      -0.846178      -2.404449                                 
 H      -0.680148      -0.411888      -2.833779                                 
 H      -1.975508      -1.562258      -3.124319                                 
 C      -2.615698       0.245372      -2.142149                                 
 H      -2.378888       0.826102      -1.249219                                 
 H      -2.600068       0.950982      -2.979929                                 
 C      -4.028168      -0.273978      -2.048189                                 
 O      -4.418588      -1.323928      -2.507779                                 
 O      -4.833098       0.592122      -1.425409                                 
 H      -5.732758       0.224442      -1.440239                                 
 O       0.928222      -0.699348      -3.157691                                 
 H       0.948812       0.171972      -3.611780                                 
 C       1.110712      -1.719398      -4.137510                                 
 H       0.260152      -1.762078      -4.830020                                 
 H       2.033182      -1.577048      -4.717900                                 
 H       1.173342      -2.671748      -3.605310                                 
 O      -1.745118       2.233762       3.651789                                 
 H      -2.596878       2.137352       4.132500                                 
 C      -1.293948       0.934392       3.275069                                 
 H      -1.033838       0.333122       4.155789                                 
 H      -2.043558       0.390182       2.683520                                 
 H      -0.395348       1.067422       2.667639                                 
 O       0.847742       1.982992      -3.410220                                 
 H       1.088802       2.240072      -2.492841                                 
 C      -0.054568       2.959332      -3.926430                                 
 H      -1.010438       2.941662      -3.387151                                 
 H       0.361102       3.975612      -3.877270                                 
 H      -0.241468       2.705942      -4.972840                                 
 O       3.101712      -1.809258       3.355309                                 
 H       3.524372      -2.192228       2.554970                                 
 C       4.103482      -1.649198       4.357659                                 
 H       4.483382      -2.620898       4.698659                                 
 H       4.949332      -1.041938       4.005740                                 
 H       3.635192      -1.142578       5.205120                                 
 O      -4.782477      -1.602298       2.548389                                 
 H      -5.570107      -1.744768       3.118609                                 
 C      -5.001828      -2.269228       1.307009                                 
 H      -5.037278      -3.358028       1.441609                                 
 H      -5.930667      -1.942308       0.818749                                 
 H      -4.158148      -2.027048       0.656149                                 
 O      -0.415128       4.982772       3.186709                                 
 H      -0.794668       4.106712       3.419729                                 
 C      -0.501728       5.146542       1.772669                                 
 H       0.145022       4.430572       1.249259                                 
 H      -1.530478       5.029972       1.403639                                 
 H      -0.157868       6.157892       1.542449                                 
 O       4.591033      -2.878798       1.400119                                 
 H       5.409802      -2.650938       1.893579                                 
 C       4.934982      -3.789978       0.358339                                 
 H       5.572722      -3.309918      -0.395101                                 
 H       5.449452      -4.682718       0.740949                                 
 H       4.003293      -4.099418      -0.121501                                 
 O       1.080712      -2.861368       5.034289                                 
 H       1.763732      -2.445038       4.463349                                 
 C       0.843122      -2.002108       6.147449                                 
 H       1.726512      -1.938158       6.795839                                 
 H       0.558832      -0.987388       5.835130                                 
 H       0.021372      -2.436618       6.721940                                 
 O       4.899982      -0.300338      -4.172270                                 
 H       5.274502       0.324112      -3.512300                                 
 C       3.857982       0.368152      -4.880250                                 
 H       3.010742       0.594652      -4.220100                                 
 H       4.204682       1.302072      -5.344591                                 
 H       3.514592      -0.309118      -5.666040                                 
 O       6.239712       1.619782      -2.482151                                 
 H       5.797792       2.466772      -2.712641                                 
 C       5.559503       1.048972      -1.366171                                 
 H       5.684372       1.665612      -0.466711                                 
 H       4.485462       0.916362      -1.558341                                 
 H       6.007292       0.069602      -1.180721                                 
 O       4.575812       3.874472      -2.895761                                 
 H       4.841172       4.807282      -2.736861                                 
 C       3.562982       3.861812      -3.899700                                 
 H       2.642642       4.341182      -3.541871                                 
 H       3.887362       4.362622      -4.822721                                 
 H       3.344302       2.815262      -4.125471                                 
 O      -0.146968       7.207842      -1.402731                                 
 H       0.712112       7.667742      -1.274911                                 
 C       0.118352       5.840762      -1.710301                                 
 H       0.618362       5.741882      -2.682451                                 
 H       0.737312       5.355302      -0.942671                                 
 H      -0.845138       5.327782      -1.761561                                 
 O      -3.162658       1.351792       5.965980                                 
 H      -4.116228       1.175232       6.125170                                 
 C      -2.410258       0.266752       6.504869                                 
 H      -2.493278       0.230062       7.598770                                 
 H      -2.726008      -0.702148       6.093040                                 
 H      -1.363438       0.436632       6.241539                                 
 O      -0.228418      -5.040438       5.112430                                 
 H       0.208052      -4.164758       5.204690                                 
 C      -1.523148      -4.838368       4.549670                                 
 H      -2.175668      -4.289248       5.240749                                 
 H      -1.480598      -4.294738       3.595360                                 
 H      -1.956858      -5.825688       4.373079                                 
 O       2.737052      -6.884818      -1.776341                                 
 H       3.509912      -7.153198      -1.231811                                 
 C       3.040432      -5.639368      -2.401381                                 
 H       3.133732      -4.835048      -1.660291                                 
 H       3.966322      -5.686058      -2.991850                                 
 H       2.208882      -5.401518      -3.069211                                 
 O       5.804292      -2.922058      -4.186290                                 
 H       5.414692      -2.031608      -4.331631                                 
 C       6.029482      -3.089548      -2.788030                                 
 H       6.802532      -2.400238      -2.424571                                 
 H       5.114022      -2.937358      -2.199121                                 
 H       6.378752      -4.113888      -2.637001                                 
 O       6.960443      -2.068358       2.565320                                 
 H       7.297132      -1.891418       3.471509                                 
 C       7.497152      -1.080858       1.687429                                 
 H       7.105823      -0.083178       1.924709                                 
 H       8.595232      -1.047928       1.721679                                 
 H       7.184532      -1.344558       0.674099                                 


