%nprocshared=24                                                                      
%mem=23500MB                                                                         
%chk=DAC_061222_MC_TTC_THF_Thiago.chk                                                
%rwf=/scr/guest/DAC,500GB                                                            
#p opt freq=noraman M062X/6-31g(d,p) scrf=(iefpcm,solvent=thf) scf=maxcycle=2000 maxd
                                                                                     
Estruturas que vieram da MC2                                                         
                                                                                     
0 1                                                                                 
 C       1.497582       2.904662      -0.579039                                 
 C       1.763682       1.923092       0.482951                                 
 C       2.662482       2.244152       1.515461                                 
 C       3.302722       3.459032       1.551781                                 
 C       3.074482       4.434722       0.542031                                 
 C       2.214562       4.166312      -0.470129                                 
 H       2.860282       1.524372       2.301491                                 
 H       3.597582       5.380632       0.604291                                 
 H       2.024672       4.895022      -1.250539                                 
 N       4.211182       3.747272       2.618981                                 
 O       4.772472       4.844332       2.630961                                 
 O       4.402812       2.894382       3.487821                                 
 O       0.711922       2.698372      -1.523669                                 
 C       1.151982       0.647142       0.527811                                 
 H       1.441912       0.041072       1.379931                                 
 C       0.252822       0.128022      -0.378909                                 
 H      -0.007988       0.768692      -1.208439                                 
 C      -0.328548      -1.144588      -0.283909                                 
 C      -0.125518      -2.223248       0.782221                                 
 N      -1.196078      -1.589058      -1.203949                                 
 C      -2.538268      -3.696718      -1.604449                                 
 C      -2.791918      -4.965928      -1.087859                                 
 C      -2.177568      -5.407228       0.081441                                 
 C      -1.289958      -4.581738       0.771481                                 
 C      -1.028928      -3.320968       0.266171                                 
 C      -1.646928      -2.900878      -0.903869                                 
 H      -3.047208      -3.342938      -2.491009                                 
 H      -3.486098      -5.616978      -1.607939                                 
 H      -2.394278      -6.399598       0.461211                                 
 H      -0.815278      -4.926328       1.684551                                 
 C      -0.601248      -1.749768       2.168891                                 
 H      -1.631398      -1.389548       2.128061                                 
 H      -0.561228      -2.589228       2.866541                                 
 H       0.027372      -0.951538       2.564891                                 
 C       1.334792      -2.713238       0.821971                                 
 H       1.670692      -3.025468      -0.169139                                 
 H       2.014772      -1.944498       1.189961                                 
 H       1.404222      -3.573188       1.491781                                 
 C      -1.583198      -0.846178      -2.404449                                 
 H      -0.680148      -0.411888      -2.833779                                 
 H      -1.975508      -1.562258      -3.124319                                 
 C      -2.615698       0.245372      -2.142149                                 
 H      -2.378888       0.826102      -1.249219                                 
 H      -2.600068       0.950982      -2.979929                                 
 C      -4.028168      -0.273978      -2.048189                                 
 O      -4.418588      -1.323928      -2.507779                                 
 O      -4.833098       0.592122      -1.425409                                 
 H      -5.732758       0.224442      -1.440239                                 
 O       2.423653      -2.447839      -3.254790                                 
 H       1.835773      -2.613069      -4.024790                                 
 C       2.363733      -1.059219      -2.935460                                 
 H       2.799243      -0.448019      -3.736460                                 
 H       1.334753      -0.719918      -2.750680                                 
 H       2.951753      -0.910589      -2.026470                                 
 O      -2.128117       3.465421       3.090020                                 
 H      -2.966527       3.825781       3.454820                                 
 C      -2.350767       3.104471       1.728400                                 
 H      -3.055197       2.266382       1.649470                                 
 H      -2.733087       3.945721       1.133290                                 
 H      -1.389077       2.789901       1.315670                                 
 O       1.912843      -0.919259       4.160060                                 
 H       1.834013      -0.494479       5.042770                                 
 C       1.628623      -2.309258       4.305000                                 
 H       2.395543      -2.810899       4.909230                                 
 H       0.645223      -2.486189       4.762920                                 
 H       1.634283      -2.746778       3.303690                                 
 O      -5.110737      -0.502228       1.144130                                 
 H      -6.024017      -0.713919       1.438970                                 
 C      -4.443397       0.176631       2.206040                                 
 H      -4.894567       1.159251       2.395200                                 
 H      -4.452757      -0.403049       3.139820                                 
 H      -3.406567       0.324771       1.894300                                 
 O      -0.898827       4.109891      -2.355360                                 
 H      -0.297317       3.527331      -1.840970                                 
 C      -0.103437       5.039621      -3.088050                                 
 H       0.421853       5.729961      -2.415480                                 
 H       0.635583       4.538712      -3.729110                                 
 H      -0.781787       5.618711      -3.719400                                 
 O      -1.109037       0.085461      -5.422060                                 
 H      -0.460797      -0.575419      -5.092170                                 
 C      -0.389127       1.142521      -6.053090                                 
 H       0.212863       1.702791      -5.326080                                 
 H       0.270923       0.776011      -6.851870                                 
 H      -1.126517       1.820691      -6.489510                                 
 O       6.151593      -2.083318       0.867890                                 
 H       6.623943      -1.525799       0.210730                                 
 C       5.138963      -1.289609       1.483100                                 
 H       5.577113      -0.483929       2.086240                                 
 H       4.453303      -0.847749       0.746430                                 
 H       4.569103      -1.947459       2.143840                                 
 O       0.586753      -2.243719      -5.436230                                 
 H       1.325303      -2.226048      -6.084360                                 
 C      -0.478057      -3.012959      -5.991510                                 
 H      -0.909757      -2.517599      -6.870770                                 
 H      -0.154467      -4.023659      -6.277670                                 
 H      -1.251897      -3.095309      -5.224400                                 
 O      -0.199957       4.981301       3.657200                                 
 H      -0.766357       4.235422       3.359380                                 
 C      -1.048147       6.035821       4.107080                                 
 H      -1.629157       6.459792       3.277900                                 
 H      -1.741927       5.704001       4.892350                                 
 H      -0.403287       6.818041       4.514930                                 
 O      -5.548457      -2.048849       4.237430                                 
 H      -6.132367      -1.857449       3.470470                                 
 C      -4.510217      -2.924428       3.802290                                 
 H      -4.910467      -3.907588       3.522930                                 
 H      -3.951627      -2.514059       2.949290                                 
 H      -3.823727      -3.054878       4.642400                                 
 O       0.899833      -5.139699       3.560660                                 
 H       1.710003      -5.583068       3.224670                                 
 C       0.340263      -5.950809       4.591610                                 
 H      -0.026997      -6.904728       4.191590                                 
 H       1.061823      -6.157749       5.394470                                 
 H      -0.505847      -5.401699       5.011940                                 
 O       5.938403      -4.023388      -0.925510                                 
 H       6.154503      -3.296349      -0.300570                                 
 C       4.759833      -4.678059      -0.460490                                 
 H       4.940683      -5.193048       0.491820                                 
 H       3.920683      -3.979979      -0.331830                                 
 H       4.485773      -5.422958      -1.211580                                 
 O       5.211223       2.940542      -4.664130                                 
 H       5.698663       2.100322      -4.813250                                 
 C       3.899133       2.621691      -4.205210                                 
 H       3.317693       2.113662      -4.985390                                 
 H       3.916133       1.988261      -3.307130                                 
 H       3.403643       3.564611      -3.961330                                 
 O       7.146303      -0.127759      -1.040310                                 
 H       7.835863       0.529441      -0.798720                                 
 C       6.368783       0.410821      -2.107680                                 
 H       5.795213       1.287041      -1.778830                                 
 H       6.988383       0.696191      -2.969470                                 
 H       5.667043      -0.366089      -2.420770                                 
 O      -0.630367       7.468922      -0.059450                                 
 H      -0.016337       8.088052      -0.512760                                 
 C       0.138183       6.613331       0.783880                                 
 H       0.789783       5.955281       0.194600                                 
 H       0.756113       7.178462       1.495790                                 
 H      -0.566157       5.993521       1.344090                                 
 O      -3.377377      -0.535649       6.903050                                 
 H      -3.306907      -0.087849       7.775000                                 
 C      -2.632677       0.220051       5.950060                                 
 H      -3.088277       1.204011       5.779490                                 
 H      -1.587457       0.362451       6.258760                                 
 H      -2.649157      -0.337839       5.010620                                 
 O       2.357973       0.330931       6.786940                                 
 H       3.291833       0.630682       6.849400                                 
 C       1.513703       1.411271       7.179330                                 
 H       1.643713       1.651411       8.242480                                 
 H       1.697673       2.318221       6.586330                                 
 H       0.481593       1.089791       7.019570                                 


